
/*--------------------------------*- C++ -*----------------------------------*\
| =========                 |                                                 |
| \\      /  F ield         | OpenFOAM: The Open Source CFD Toolbox           |
|  \\    /   O peration     | Version:  1.6                                   |
|   \\  /    A nd           | Web:      www.OpenFOAM.org                      |
|    \\/     M anipulation  |                                                 |
\*---------------------------------------------------------------------------*/
FoamFile
{
    version     2.0;
    format      ascii;
    class       dictionary;
    location    "system";
    object      setFieldsDict;
}
// * * * * * * * * * * * * * * * * * * * * * * * * * * * * * * * * * * * * * //

defaultFieldValues
(
    volScalarFieldValue b 0
);

regions
(
    boxToCell
    {
        box (0.49 0.49 -1) (0.51 0.51 1);
        fieldValues
        (
            volScalarFieldValue b 100
        );
    }

    boxToCell
    {
        box (1.49 1.49 -1) (1.51 1.51 1);
        fieldValues
        (
            volScalarFieldValue b -100
        );
    }


);


// ************************************************************************* //
